<?xml version="1.0" encoding="UTF-8"?>

<!-- generated on 2025-08-23 18:35:38.018646 by randomTrips.py v1_24_0+0000-b72eb3fabc8
<configuration>
    <net-file value="city_grid.net.xml"/>
    <output-trip-file value="city.trips.xml"/>
    <route-file value="city.rou.xml"/>
    <prefix value="veh"/>
    <trip-attributes value="departLane=&quot;best&quot; departSpeed=&quot;random&quot;"/>
    <vehicle-class value="passenger"/>
    <period value="2.0"/>
</configuration>
-->

<!-- generated on 2025-08-23 18:35:37 by Eclipse SUMO duarouter Version 1.24.0
<duarouterConfiguration xmlns:xsi="http://www.w3.org/2001/XMLSchema-instance" xsi:noNamespaceSchemaLocation="http://sumo.dlr.de/xsd/duarouterConfiguration.xsd">

    <input>
        <net-file value="city_grid.net.xml"/>
        <route-files value="city.trips.xml"/>
    </input>

    <output>
        <output-file value="city.rou.xml"/>
        <alternatives-output value="NUL"/>
    </output>

    <time>
        <begin value="0"/>
        <end value="3600.0"/>
    </time>

    <report>
        <no-warnings value="true"/>
        <ignore-errors value="true"/>
        <no-step-log value="true"/>
    </report>

</duarouterConfiguration>
-->

<routes xmlns:xsi="http://www.w3.org/2001/XMLSchema-instance" xsi:noNamespaceSchemaLocation="http://sumo.dlr.de/xsd/routes_file.xsd">
    <vType id="veh_passenger" vClass="passenger"/>
    <vehicle id="veh0" type="veh_passenger" depart="0.00" departLane="best" departSpeed="random">
        <route edges="C1D1 D1C1 C1B1 B1A1 A1A0 A0B0"/>
    </vehicle>
    <vehicle id="veh1" type="veh_passenger" depart="2.00" departLane="best" departSpeed="random">
        <route edges="B1A1 A1B1 B1B0 B0A0"/>
    </vehicle>
    <vehicle id="veh2" type="veh_passenger" depart="4.00" departLane="best" departSpeed="random">
        <route edges="C3B3 B3B2 B2C2 C2C1"/>
    </vehicle>
    <vehicle id="veh3" type="veh_passenger" depart="6.00" departLane="best" departSpeed="random">
        <route edges="D1D2 D2C2 C2B2 B2A2 A2A1 A1B1"/>
    </vehicle>
    <vehicle id="veh4" type="veh_passenger" depart="8.00" departLane="best" departSpeed="random">
        <route edges="B2C2 C2C1 C1B1 B1A1 A1A0 A0B0"/>
    </vehicle>
    <vehicle id="veh5" type="veh_passenger" depart="10.00" departLane="best" departSpeed="random">
        <route edges="B0A0 A0A1 A1B1 B1C1 C1C0 C0B0"/>
    </vehicle>
    <vehicle id="veh6" type="veh_passenger" depart="12.00" departLane="best" departSpeed="random">
        <route edges="A0B0 B0B1 B1B2 B2A2 A2A3 A3B3"/>
    </vehicle>
    <vehicle id="veh7" type="veh_passenger" depart="14.00" departLane="best" departSpeed="random">
        <route edges="C2B2 B2B1 B1B0 B0C0 C0D0"/>
    </vehicle>
    <vehicle id="veh8" type="veh_passenger" depart="16.00" departLane="best" departSpeed="random">
        <route edges="B0A0 A0A1 A1B1 B1C1 C1C0"/>
    </vehicle>
    <vehicle id="veh9" type="veh_passenger" depart="18.00" departLane="best" departSpeed="random">
        <route edges="D0C0 C0B0 B0A0 A0A1"/>
    </vehicle>
    <vehicle id="veh10" type="veh_passenger" depart="20.00" departLane="best" departSpeed="random">
        <route edges="D0C0 C0C1 C1C2 C2C3"/>
    </vehicle>
    <vehicle id="veh11" type="veh_passenger" depart="22.00" departLane="best" departSpeed="random">
        <route edges="B1C1 C1B1 B1A1 A1A2 A2B2"/>
    </vehicle>
    <vehicle id="veh12" type="veh_passenger" depart="24.00" departLane="best" departSpeed="random">
        <route edges="D2D3 D3C3 C3B3 B3B2 B2B1 B1C1"/>
    </vehicle>
    <vehicle id="veh13" type="veh_passenger" depart="26.00" departLane="best" departSpeed="random">
        <route edges="A1B1"/>
    </vehicle>
    <vehicle id="veh14" type="veh_passenger" depart="28.00" departLane="best" departSpeed="random">
        <route edges="D1C1 C1C0"/>
    </vehicle>
    <vehicle id="veh15" type="veh_passenger" depart="30.00" departLane="best" departSpeed="random">
        <route edges="D0C0 C0C1 C1C2 C2C3 C3B3"/>
    </vehicle>
    <vehicle id="veh16" type="veh_passenger" depart="32.00" departLane="best" departSpeed="random">
        <route edges="C0C1 C1D1 D1D2 D2D3 D3C3"/>
    </vehicle>
    <vehicle id="veh17" type="veh_passenger" depart="34.00" departLane="best" departSpeed="random">
        <route edges="B2B1 B1B0 B0C0 C0D0"/>
    </vehicle>
    <vehicle id="veh18" type="veh_passenger" depart="36.00" departLane="best" departSpeed="random">
        <route edges="D0D1 D1C1 C1C2"/>
    </vehicle>
    <vehicle id="veh19" type="veh_passenger" depart="38.00" departLane="best" departSpeed="random">
        <route edges="D1D0 D0C0 C0C1 C1B1"/>
    </vehicle>
    <vehicle id="veh20" type="veh_passenger" depart="40.00" departLane="best" departSpeed="random">
        <route edges="C2C3 C3B3 B3A3 A3A2 A2A1 A1A0"/>
    </vehicle>
    <vehicle id="veh21" type="veh_passenger" depart="42.00" departLane="best" departSpeed="random">
        <route edges="B0A0 A0A1 A1B1 B1A1"/>
    </vehicle>
    <vehicle id="veh22" type="veh_passenger" depart="44.00" departLane="best" departSpeed="random">
        <route edges="A1A2 A2B2 B2B1 B1B0 B0B1"/>
    </vehicle>
    <vehicle id="veh23" type="veh_passenger" depart="46.00" departLane="best" departSpeed="random">
        <route edges="A1B1 B1A1"/>
    </vehicle>
    <vehicle id="veh24" type="veh_passenger" depart="48.00" departLane="best" departSpeed="random">
        <route edges="C1D1 D1D2 D2C2 C2B2 B2A2"/>
    </vehicle>
    <vehicle id="veh25" type="veh_passenger" depart="50.00" departLane="best" departSpeed="random">
        <route edges="B2A2 A2B2 B2B1 B1B0 B0A0"/>
    </vehicle>
    <vehicle id="veh26" type="veh_passenger" depart="52.00" departLane="best" departSpeed="random">
        <route edges="B0C0 C0C1 C1C2 C2D2 D2D1"/>
    </vehicle>
    <vehicle id="veh27" type="veh_passenger" depart="54.00" departLane="best" departSpeed="random">
        <route edges="C2B2 B2B1 B1C1 C1C2"/>
    </vehicle>
    <vehicle id="veh28" type="veh_passenger" depart="56.00" departLane="best" departSpeed="random">
        <route edges="A3A2 A2B2 B2C2 C2D2"/>
    </vehicle>
    <vehicle id="veh29" type="veh_passenger" depart="58.00" departLane="best" departSpeed="random">
        <route edges="A2B2 B2B1"/>
    </vehicle>
    <vehicle id="veh30" type="veh_passenger" depart="60.00" departLane="best" departSpeed="random">
        <route edges="D3D2 D2C2 C2C1 C1D1"/>
    </vehicle>
    <vehicle id="veh31" type="veh_passenger" depart="62.00" departLane="best" departSpeed="random">
        <route edges="C0D0 D0D1 D1D2 D2C2 C2C1"/>
    </vehicle>
    <vehicle id="veh32" type="veh_passenger" depart="64.00" departLane="best" departSpeed="random">
        <route edges="D1C1 C1C2 C2C3 C3D3"/>
    </vehicle>
    <vehicle id="veh33" type="veh_passenger" depart="66.00" departLane="best" departSpeed="random">
        <route edges="B0A0 A0A1 A1A0 A0B0"/>
    </vehicle>
    <vehicle id="veh34" type="veh_passenger" depart="68.00" departLane="best" departSpeed="random">
        <route edges="B1B2 B2B1 B1B0 B0C0"/>
    </vehicle>
    <vehicle id="veh35" type="veh_passenger" depart="70.00" departLane="best" departSpeed="random">
        <route edges="B0A0 A0A1 A1A2 A2B2 B2C2 C2D2 D2D3"/>
    </vehicle>
    <vehicle id="veh36" type="veh_passenger" depart="72.00" departLane="best" departSpeed="random">
        <route edges="D1D2 D2C2 C2C1 C1B1 B1B2"/>
    </vehicle>
    <vehicle id="veh37" type="veh_passenger" depart="74.00" departLane="best" departSpeed="random">
        <route edges="C2B2 B2B1"/>
    </vehicle>
    <vehicle id="veh38" type="veh_passenger" depart="76.00" departLane="best" departSpeed="random">
        <route edges="D2C2 C2B2 B2B3 B3B2"/>
    </vehicle>
    <vehicle id="veh39" type="veh_passenger" depart="78.00" departLane="best" departSpeed="random">
        <route edges="B0C0 C0B0 B0B1"/>
    </vehicle>
    <vehicle id="veh40" type="veh_passenger" depart="80.00" departLane="best" departSpeed="random">
        <route edges="C0D0 D0D1 D1C1 C1B1 B1B0 B0C0"/>
    </vehicle>
    <vehicle id="veh41" type="veh_passenger" depart="82.00" departLane="best" departSpeed="random">
        <route edges="C1C0 C0D0 D0D1 D1D2 D2C2"/>
    </vehicle>
    <vehicle id="veh42" type="veh_passenger" depart="84.00" departLane="best" departSpeed="random">
        <route edges="B2B3 B3B2 B2B1 B1B0 B0A0"/>
    </vehicle>
    <vehicle id="veh43" type="veh_passenger" depart="86.00" departLane="best" departSpeed="random">
        <route edges="D3D2 D2D1 D1D0 D0C0 C0B0"/>
    </vehicle>
    <vehicle id="veh44" type="veh_passenger" depart="88.00" departLane="best" departSpeed="random">
        <route edges="A1B1 B1A1 A1A0"/>
    </vehicle>
    <vehicle id="veh45" type="veh_passenger" depart="90.00" departLane="best" departSpeed="random">
        <route edges="A2A1 A1B1 B1C1 C1D1"/>
    </vehicle>
    <vehicle id="veh46" type="veh_passenger" depart="92.00" departLane="best" departSpeed="random">
        <route edges="D0C0 C0B0 B0B1 B1B2 B2C2"/>
    </vehicle>
    <vehicle id="veh47" type="veh_passenger" depart="94.00" departLane="best" departSpeed="random">
        <route edges="A1A2 A2B2 B2B1"/>
    </vehicle>
    <vehicle id="veh48" type="veh_passenger" depart="96.00" departLane="best" departSpeed="random">
        <route edges="D3D2 D2D1 D1D0 D0C0 C0C1"/>
    </vehicle>
    <vehicle id="veh49" type="veh_passenger" depart="98.00" departLane="best" departSpeed="random">
        <route edges="D3C3 C3C2 C2C1 C1D1 D1D0"/>
    </vehicle>
    <vehicle id="veh50" type="veh_passenger" depart="100.00" departLane="best" departSpeed="random">
        <route edges="A0A1 A1A2 A2B2 B2C2 C2D2"/>
    </vehicle>
    <vehicle id="veh51" type="veh_passenger" depart="102.00" departLane="best" departSpeed="random">
        <route edges="C2C1 C1C0 C0C1"/>
    </vehicle>
    <vehicle id="veh52" type="veh_passenger" depart="104.00" departLane="best" departSpeed="random">
        <route edges="B0C0 C0C1 C1D1"/>
    </vehicle>
    <vehicle id="veh53" type="veh_passenger" depart="106.00" departLane="best" departSpeed="random">
        <route edges="A2A1 A1B1 B1B2 B2C2"/>
    </vehicle>
    <vehicle id="veh54" type="veh_passenger" depart="108.00" departLane="best" departSpeed="random">
        <route edges="B3A3 A3A2 A2B2 B2C2 C2D2 D2D3"/>
    </vehicle>
    <vehicle id="veh55" type="veh_passenger" depart="110.00" departLane="best" departSpeed="random">
        <route edges="D1D2 D2C2 C2B2 B2B1 B1B0 B0C0"/>
    </vehicle>
    <vehicle id="veh56" type="veh_passenger" depart="112.00" departLane="best" departSpeed="random">
        <route edges="C0B0 B0B1 B1B2 B2B3 B3A3 A3A2"/>
    </vehicle>
    <vehicle id="veh57" type="veh_passenger" depart="114.00" departLane="best" departSpeed="random">
        <route edges="D2C2 C2C1 C1D1 D1D0"/>
    </vehicle>
    <vehicle id="veh58" type="veh_passenger" depart="116.00" departLane="best" departSpeed="random">
        <route edges="B1B0 B0B1 B1C1 C1D1"/>
    </vehicle>
    <vehicle id="veh59" type="veh_passenger" depart="118.00" departLane="best" departSpeed="random">
        <route edges="C1C2 C2B2 B2A2 A2B2"/>
    </vehicle>
    <vehicle id="veh60" type="veh_passenger" depart="120.00" departLane="best" departSpeed="random">
        <route edges="C3C2 C2C1 C1C0 C0C1"/>
    </vehicle>
    <vehicle id="veh61" type="veh_passenger" depart="122.00" departLane="best" departSpeed="random">
        <route edges="C3D3 D3D2 D2D1 D1D0 D0C0 C0C1"/>
    </vehicle>
    <vehicle id="veh62" type="veh_passenger" depart="124.00" departLane="best" departSpeed="random">
        <route edges="A0A1 A1B1 B1B2"/>
    </vehicle>
    <vehicle id="veh63" type="veh_passenger" depart="126.00" departLane="best" departSpeed="random">
        <route edges="A0A1 A1A2 A2B2 B2C2 C2D2 D2D1"/>
    </vehicle>
    <vehicle id="veh64" type="veh_passenger" depart="128.00" departLane="best" departSpeed="random">
        <route edges="D1D2 D2C2 C2C1 C1C0 C0D0 D0D1"/>
    </vehicle>
    <vehicle id="veh65" type="veh_passenger" depart="130.00" departLane="best" departSpeed="random">
        <route edges="B1B0 B0B1 B1A1 A1A0"/>
    </vehicle>
    <vehicle id="veh66" type="veh_passenger" depart="132.00" departLane="best" departSpeed="random">
        <route edges="D1D2 D2D3"/>
    </vehicle>
    <vehicle id="veh67" type="veh_passenger" depart="134.00" departLane="best" departSpeed="random">
        <route edges="A1B1 B1B2 B2B3 B3C3"/>
    </vehicle>
    <vehicle id="veh68" type="veh_passenger" depart="136.00" departLane="best" departSpeed="random">
        <route edges="A1A2 A2A3 A3B3 B3C3 C3C2"/>
    </vehicle>
    <vehicle id="veh69" type="veh_passenger" depart="138.00" departLane="best" departSpeed="random">
        <route edges="C3C2 C2B2 B2A2 A2A3"/>
    </vehicle>
    <vehicle id="veh70" type="veh_passenger" depart="140.00" departLane="best" departSpeed="random">
        <route edges="B3B2 B2B1 B1B0 B0C0 C0D0"/>
    </vehicle>
    <vehicle id="veh71" type="veh_passenger" depart="142.00" departLane="best" departSpeed="random">
        <route edges="B0C0 C0C1 C1D1 D1D0"/>
    </vehicle>
    <vehicle id="veh72" type="veh_passenger" depart="144.00" departLane="best" departSpeed="random">
        <route edges="B2C2 C2C1 C1C0 C0B0 B0A0"/>
    </vehicle>
    <vehicle id="veh73" type="veh_passenger" depart="146.00" departLane="best" departSpeed="random">
        <route edges="C0C1 C1C2 C2C3 C3B3"/>
    </vehicle>
    <vehicle id="veh74" type="veh_passenger" depart="148.00" departLane="best" departSpeed="random">
        <route edges="A3B3 B3B2 B2B1 B1B0"/>
    </vehicle>
    <vehicle id="veh75" type="veh_passenger" depart="150.00" departLane="best" departSpeed="random">
        <route edges="D3D2 D2C2 C2B2"/>
    </vehicle>
    <vehicle id="veh76" type="veh_passenger" depart="152.00" departLane="best" departSpeed="random">
        <route edges="B3A3 A3A2 A2A1 A1B1 B1C1 C1C0 C0B0"/>
    </vehicle>
    <vehicle id="veh77" type="veh_passenger" depart="154.00" departLane="best" departSpeed="random">
        <route edges="A2A1 A1B1 B1B0 B0A0"/>
    </vehicle>
    <vehicle id="veh78" type="veh_passenger" depart="156.00" departLane="best" departSpeed="random">
        <route edges="B1C1 C1C0"/>
    </vehicle>
    <vehicle id="veh79" type="veh_passenger" depart="158.00" departLane="best" departSpeed="random">
        <route edges="B0B1 B1B0 B0A0"/>
    </vehicle>
    <vehicle id="veh80" type="veh_passenger" depart="160.00" departLane="best" departSpeed="random">
        <route edges="A1A2 A2B2 B2B1 B1C1 C1D1"/>
    </vehicle>
    <vehicle id="veh81" type="veh_passenger" depart="162.00" departLane="best" departSpeed="random">
        <route edges="B0A0 A0A1 A1A2 A2B2 B2C2 C2D2 D2C2"/>
    </vehicle>
    <vehicle id="veh82" type="veh_passenger" depart="164.00" departLane="best" departSpeed="random">
        <route edges="D1D0 D0C0 C0B0 B0A0 A0A1 A1A2"/>
    </vehicle>
    <vehicle id="veh83" type="veh_passenger" depart="166.00" departLane="best" departSpeed="random">
        <route edges="B0B1 B1B2 B2C2 C2C1"/>
    </vehicle>
    <vehicle id="veh84" type="veh_passenger" depart="168.00" departLane="best" departSpeed="random">
        <route edges="B0A0 A0A1 A1A2 A2A3"/>
    </vehicle>
    <vehicle id="veh85" type="veh_passenger" depart="170.00" departLane="best" departSpeed="random">
        <route edges="D2D1 D1C1 C1B1"/>
    </vehicle>
    <vehicle id="veh86" type="veh_passenger" depart="172.00" departLane="best" departSpeed="random">
        <route edges="B3B2 B2C2 C2C3 C3D3"/>
    </vehicle>
    <vehicle id="veh87" type="veh_passenger" depart="174.00" departLane="best" departSpeed="random">
        <route edges="D0C0 C0B0 B0A0 A0A1 A1A2 A2A3 A3B3"/>
    </vehicle>
    <vehicle id="veh88" type="veh_passenger" depart="176.00" departLane="best" departSpeed="random">
        <route edges="A1B1 B1B2 B2C2"/>
    </vehicle>
    <vehicle id="veh89" type="veh_passenger" depart="178.00" departLane="best" departSpeed="random">
        <route edges="B2C2 C2C3 C3B3 B3B2"/>
    </vehicle>
    <vehicle id="veh90" type="veh_passenger" depart="180.00" departLane="best" departSpeed="random">
        <route edges="C2D2 D2C2 C2C1"/>
    </vehicle>
    <vehicle id="veh91" type="veh_passenger" depart="182.00" departLane="best" departSpeed="random">
        <route edges="D3D2 D2D1 D1C1 C1B1 B1A1 A1B1"/>
    </vehicle>
    <vehicle id="veh92" type="veh_passenger" depart="184.00" departLane="best" departSpeed="random">
        <route edges="B2B3 B3B2 B2B1 B1C1"/>
    </vehicle>
    <vehicle id="veh93" type="veh_passenger" depart="186.00" departLane="best" departSpeed="random">
        <route edges="D1D0 D0C0 C0B0 B0B1"/>
    </vehicle>
    <vehicle id="veh94" type="veh_passenger" depart="188.00" departLane="best" departSpeed="random">
        <route edges="A3B3 B3A3"/>
    </vehicle>
    <vehicle id="veh95" type="veh_passenger" depart="190.00" departLane="best" departSpeed="random">
        <route edges="B2C2 C2C1 C1B1 B1A1"/>
    </vehicle>
    <vehicle id="veh96" type="veh_passenger" depart="192.00" departLane="best" departSpeed="random">
        <route edges="B0B1 B1B2 B2C2 C2D2 D2D1"/>
    </vehicle>
    <vehicle id="veh97" type="veh_passenger" depart="194.00" departLane="best" departSpeed="random">
        <route edges="B3A3 A3A2 A2A1 A1B1 B1C1 C1D1 D1D0"/>
    </vehicle>
    <vehicle id="veh98" type="veh_passenger" depart="196.00" departLane="best" departSpeed="random">
        <route edges="C0D0 D0D1 D1C1 C1B1 B1A1 A1A0"/>
    </vehicle>
    <vehicle id="veh99" type="veh_passenger" depart="198.00" departLane="best" departSpeed="random">
        <route edges="D3D2 D2D1 D1C1"/>
    </vehicle>
    <vehicle id="veh100" type="veh_passenger" depart="200.00" departLane="best" departSpeed="random">
        <route edges="D3C3 C3C2 C2D2 D2D1"/>
    </vehicle>
    <vehicle id="veh101" type="veh_passenger" depart="202.00" departLane="best" departSpeed="random">
        <route edges="D1C1 C1B1 B1A1 A1A2 A2B2"/>
    </vehicle>
    <vehicle id="veh102" type="veh_passenger" depart="204.00" departLane="best" departSpeed="random">
        <route edges="B3C3 C3C2 C2C1 C1C0 C0B0 B0A0"/>
    </vehicle>
    <vehicle id="veh103" type="veh_passenger" depart="206.00" departLane="best" departSpeed="random">
        <route edges="B2B3 B3A3 A3A2 A2A1 A1A0"/>
    </vehicle>
    <vehicle id="veh104" type="veh_passenger" depart="208.00" departLane="best" departSpeed="random">
        <route edges="B2B1 B1C1 C1C2 C2C3 C3D3 D3D2"/>
    </vehicle>
    <vehicle id="veh105" type="veh_passenger" depart="210.00" departLane="best" departSpeed="random">
        <route edges="B0C0 C0C1 C1C2 C2C3 C3D3"/>
    </vehicle>
    <vehicle id="veh106" type="veh_passenger" depart="212.00" departLane="best" departSpeed="random">
        <route edges="B3A3 A3A2 A2B2 B2C2"/>
    </vehicle>
    <vehicle id="veh107" type="veh_passenger" depart="214.00" departLane="best" departSpeed="random">
        <route edges="D2D3 D3C3 C3D3 D3D2"/>
    </vehicle>
    <vehicle id="veh108" type="veh_passenger" depart="216.00" departLane="best" departSpeed="random">
        <route edges="C0D0 D0D1 D1C1 C1C2 C2D2"/>
    </vehicle>
    <vehicle id="veh109" type="veh_passenger" depart="218.00" departLane="best" departSpeed="random">
        <route edges="A2B2 B2B1 B1B0"/>
    </vehicle>
    <vehicle id="veh110" type="veh_passenger" depart="220.00" departLane="best" departSpeed="random">
        <route edges="D3C3 C3C2 C2C1 C1B1"/>
    </vehicle>
    <vehicle id="veh111" type="veh_passenger" depart="222.00" departLane="best" departSpeed="random">
        <route edges="C0D0 D0D1 D1D2 D2D3 D3C3 C3B3"/>
    </vehicle>
    <vehicle id="veh112" type="veh_passenger" depart="224.00" departLane="best" departSpeed="random">
        <route edges="A1A0 A0B0 B0B1 B1C1 C1C0"/>
    </vehicle>
    <vehicle id="veh113" type="veh_passenger" depart="226.00" departLane="best" departSpeed="random">
        <route edges="C0B0 B0B1 B1C1 C1D1 D1C1"/>
    </vehicle>
    <vehicle id="veh114" type="veh_passenger" depart="228.00" departLane="best" departSpeed="random">
        <route edges="A2B2 B2C2 C2D2 D2D3 D3C3"/>
    </vehicle>
    <vehicle id="veh115" type="veh_passenger" depart="230.00" departLane="best" departSpeed="random">
        <route edges="A1A2 A2B2 B2B3 B3A3 A3A2"/>
    </vehicle>
    <vehicle id="veh116" type="veh_passenger" depart="232.00" departLane="best" departSpeed="random">
        <route edges="C1C0 C0C1 C1C2 C2C1"/>
    </vehicle>
    <vehicle id="veh117" type="veh_passenger" depart="234.00" departLane="best" departSpeed="random">
        <route edges="B0B1 B1B2 B2A2 A2A1"/>
    </vehicle>
    <vehicle id="veh118" type="veh_passenger" depart="236.00" departLane="best" departSpeed="random">
        <route edges="D1D2 D2C2 C2C1 C1C0 C0B0 B0B1"/>
    </vehicle>
    <vehicle id="veh119" type="veh_passenger" depart="238.00" departLane="best" departSpeed="random">
        <route edges="C1C0 C0C1 C1C2"/>
    </vehicle>
    <vehicle id="veh120" type="veh_passenger" depart="240.00" departLane="best" departSpeed="random">
        <route edges="B2C2 C2C1 C1C0"/>
    </vehicle>
    <vehicle id="veh121" type="veh_passenger" depart="242.00" departLane="best" departSpeed="random">
        <route edges="C0C1 C1C2 C2D2 D2D1"/>
    </vehicle>
    <vehicle id="veh122" type="veh_passenger" depart="244.00" departLane="best" departSpeed="random">
        <route edges="A3B3 B3C3 C3C2 C2D2"/>
    </vehicle>
    <vehicle id="veh123" type="veh_passenger" depart="246.00" departLane="best" departSpeed="random">
        <route edges="B0B1 B1B2 B2B1"/>
    </vehicle>
    <vehicle id="veh124" type="veh_passenger" depart="248.00" departLane="best" departSpeed="random">
        <route edges="C2C1 C1B1 B1B0"/>
    </vehicle>
    <vehicle id="veh125" type="veh_passenger" depart="250.00" departLane="best" departSpeed="random">
        <route edges="B1B2 B2B3 B3C3 C3C2"/>
    </vehicle>
    <vehicle id="veh126" type="veh_passenger" depart="252.00" departLane="best" departSpeed="random">
        <route edges="A1A2 A2B2 B2B3 B3A3"/>
    </vehicle>
    <vehicle id="veh127" type="veh_passenger" depart="254.00" departLane="best" departSpeed="random">
        <route edges="D3D2"/>
    </vehicle>
    <vehicle id="veh128" type="veh_passenger" depart="256.00" departLane="best" departSpeed="random">
        <route edges="A1A2 A2B2 B2B1 B1B0 B0A0"/>
    </vehicle>
    <vehicle id="veh129" type="veh_passenger" depart="258.00" departLane="best" departSpeed="random">
        <route edges="B0C0 C0C1 C1C2 C2D2 D2D1"/>
    </vehicle>
    <vehicle id="veh130" type="veh_passenger" depart="260.00" departLane="best" departSpeed="random">
        <route edges="D1D2"/>
    </vehicle>
    <vehicle id="veh131" type="veh_passenger" depart="262.00" departLane="best" departSpeed="random">
        <route edges="B2A2 A2B2"/>
    </vehicle>
    <vehicle id="veh132" type="veh_passenger" depart="264.00" departLane="best" departSpeed="random">
        <route edges="D1C1 C1C2 C2C3"/>
    </vehicle>
    <vehicle id="veh133" type="veh_passenger" depart="266.00" departLane="best" departSpeed="random">
        <route edges="C1C2 C2C3 C3D3 D3D2"/>
    </vehicle>
    <vehicle id="veh134" type="veh_passenger" depart="268.00" departLane="best" departSpeed="random">
        <route edges="C2B2 B2B1 B1B0 B0A0 A0A1"/>
    </vehicle>
    <vehicle id="veh135" type="veh_passenger" depart="270.00" departLane="best" departSpeed="random">
        <route edges="D0D1 D1C1 C1B1 B1B0"/>
    </vehicle>
    <vehicle id="veh136" type="veh_passenger" depart="272.00" departLane="best" departSpeed="random">
        <route edges="C2B2 B2C2 C2D2 D2D3"/>
    </vehicle>
    <vehicle id="veh137" type="veh_passenger" depart="274.00" departLane="best" departSpeed="random">
        <route edges="A2A3 A3B3 B3B2 B2A2 A2A1"/>
    </vehicle>
    <vehicle id="veh138" type="veh_passenger" depart="276.00" departLane="best" departSpeed="random">
        <route edges="A2A1 A1A0 A0B0 B0C0 C0D0"/>
    </vehicle>
    <vehicle id="veh139" type="veh_passenger" depart="278.00" departLane="best" departSpeed="random">
        <route edges="B1A1 A1B1 B1C1 C1C2"/>
    </vehicle>
    <vehicle id="veh140" type="veh_passenger" depart="280.00" departLane="best" departSpeed="random">
        <route edges="C2D2 D2C2 C2B2 B2A2 A2A3 A3B3"/>
    </vehicle>
    <vehicle id="veh141" type="veh_passenger" depart="282.00" departLane="best" departSpeed="random">
        <route edges="C1D1 D1C1 C1B1 B1B0 B0C0"/>
    </vehicle>
    <vehicle id="veh142" type="veh_passenger" depart="284.00" departLane="best" departSpeed="random">
        <route edges="B3C3 C3D3 D3D2 D2C2"/>
    </vehicle>
    <vehicle id="veh143" type="veh_passenger" depart="286.00" departLane="best" departSpeed="random">
        <route edges="D1C1 C1B1 B1A1 A1B1"/>
    </vehicle>
    <vehicle id="veh144" type="veh_passenger" depart="288.00" departLane="best" departSpeed="random">
        <route edges="B2C2 C2C1 C1B1 B1A1"/>
    </vehicle>
    <vehicle id="veh145" type="veh_passenger" depart="290.00" departLane="best" departSpeed="random">
        <route edges="A0A1 A1A2 A2A3 A3B3 B3C3 C3D3"/>
    </vehicle>
    <vehicle id="veh146" type="veh_passenger" depart="292.00" departLane="best" departSpeed="random">
        <route edges="C1D1 D1C1 C1B1 B1B0 B0C0"/>
    </vehicle>
    <vehicle id="veh147" type="veh_passenger" depart="294.00" departLane="best" departSpeed="random">
        <route edges="C3B3 B3B2 B2B1 B1B0 B0C0 C0D0"/>
    </vehicle>
    <vehicle id="veh148" type="veh_passenger" depart="296.00" departLane="best" departSpeed="random">
        <route edges="B2C2 C2C1 C1C0 C0B0 B0A0 A0A1"/>
    </vehicle>
    <vehicle id="veh149" type="veh_passenger" depart="298.00" departLane="best" departSpeed="random">
        <route edges="A1A2 A2B2 B2B1 B1C1 C1D1 D1D2"/>
    </vehicle>
    <vehicle id="veh150" type="veh_passenger" depart="300.00" departLane="best" departSpeed="random">
        <route edges="D2C2 C2C1 C1C0 C0D0"/>
    </vehicle>
    <vehicle id="veh151" type="veh_passenger" depart="302.00" departLane="best" departSpeed="random">
        <route edges="D1C1 C1B1"/>
    </vehicle>
    <vehicle id="veh152" type="veh_passenger" depart="304.00" departLane="best" departSpeed="random">
        <route edges="A2B2 B2A2 A2A3"/>
    </vehicle>
    <vehicle id="veh153" type="veh_passenger" depart="306.00" departLane="best" departSpeed="random">
        <route edges="B1B0 B0C0 C0D0 D0D1 D1D2 D2C2"/>
    </vehicle>
    <vehicle id="veh154" type="veh_passenger" depart="308.00" departLane="best" departSpeed="random">
        <route edges="D0C0 C0C1 C1D1 D1D0"/>
    </vehicle>
    <vehicle id="veh155" type="veh_passenger" depart="310.00" departLane="best" departSpeed="random">
        <route edges="D2C2 C2B2 B2B1 B1B0 B0A0"/>
    </vehicle>
    <vehicle id="veh156" type="veh_passenger" depart="312.00" departLane="best" departSpeed="random">
        <route edges="B0B1 B1A1 A1B1"/>
    </vehicle>
    <vehicle id="veh157" type="veh_passenger" depart="314.00" departLane="best" departSpeed="random">
        <route edges="C3D3 D3D2 D2D1 D1D2"/>
    </vehicle>
    <vehicle id="veh158" type="veh_passenger" depart="316.00" departLane="best" departSpeed="random">
        <route edges="B2B3 B3C3 C3C2 C2C1 C1C2"/>
    </vehicle>
    <vehicle id="veh159" type="veh_passenger" depart="318.00" departLane="best" departSpeed="random">
        <route edges="A2B2 B2C2 C2D2 D2D1"/>
    </vehicle>
    <vehicle id="veh160" type="veh_passenger" depart="320.00" departLane="best" departSpeed="random">
        <route edges="D1D0 D0C0 C0C1 C1D1 D1D2 D2D3 D3C3"/>
    </vehicle>
    <vehicle id="veh161" type="veh_passenger" depart="322.00" departLane="best" departSpeed="random">
        <route edges="D0C0 C0C1 C1D1 D1D2"/>
    </vehicle>
    <vehicle id="veh162" type="veh_passenger" depart="324.00" departLane="best" departSpeed="random">
        <route edges="A0B0 B0C0 C0C1 C1C2 C2C3 C3B3"/>
    </vehicle>
    <vehicle id="veh163" type="veh_passenger" depart="326.00" departLane="best" departSpeed="random">
        <route edges="B1B2 B2C2 C2D2 D2D1"/>
    </vehicle>
    <vehicle id="veh164" type="veh_passenger" depart="328.00" departLane="best" departSpeed="random">
        <route edges="D0C0 C0C1 C1D1 D1D0"/>
    </vehicle>
    <vehicle id="veh165" type="veh_passenger" depart="330.00" departLane="best" departSpeed="random">
        <route edges="D0C0 C0B0 B0C0"/>
    </vehicle>
    <vehicle id="veh166" type="veh_passenger" depart="332.00" departLane="best" departSpeed="random">
        <route edges="C3D3 D3D2 D2C2 C2B2 B2A2 A2A1"/>
    </vehicle>
    <vehicle id="veh167" type="veh_passenger" depart="334.00" departLane="best" departSpeed="random">
        <route edges="D1D0"/>
    </vehicle>
    <vehicle id="veh168" type="veh_passenger" depart="336.00" departLane="best" departSpeed="random">
        <route edges="B0A0 A0A1 A1B1 B1B0 B0C0 C0D0 D0D1"/>
    </vehicle>
    <vehicle id="veh169" type="veh_passenger" depart="338.00" departLane="best" departSpeed="random">
        <route edges="B3B2 B2B1 B1B0"/>
    </vehicle>
    <vehicle id="veh170" type="veh_passenger" depart="340.00" departLane="best" departSpeed="random">
        <route edges="D0C0 C0B0 B0A0"/>
    </vehicle>
    <vehicle id="veh171" type="veh_passenger" depart="342.00" departLane="best" departSpeed="random">
        <route edges="A0B0 B0B1 B1B2 B2A2 A2A3 A3B3"/>
    </vehicle>
    <vehicle id="veh172" type="veh_passenger" depart="344.00" departLane="best" departSpeed="random">
        <route edges="B1B2 B2C2 C2D2 D2D1 D1D0"/>
    </vehicle>
    <vehicle id="veh173" type="veh_passenger" depart="346.00" departLane="best" departSpeed="random">
        <route edges="D3C3 C3C2 C2C1 C1B1 B1A1"/>
    </vehicle>
    <vehicle id="veh174" type="veh_passenger" depart="348.00" departLane="best" departSpeed="random">
        <route edges="C1D1 D1C1 C1B1 B1B2 B2B3"/>
    </vehicle>